LTspice 24.1.9 for Windows
Circuit: C:\Users\MomoI\Documents\LTspice\Draft4.net
Start Time: Mon Aug 18 20:21:04 2025
solver = Normal
Maximum thread count: 12
tnom = 27
temp = 27
method = trap
.OP point found by inspection.
Total elapsed time: 0.154 seconds.

Files loaded:
C:\Users\MomoI\Documents\LTspice\Draft4.net
C:\Users\MomoI\AppData\Local\LTspice\lib\cmp\standard.dio
C:\Users\MomoI\AppData\Local\LTspice\lib\cmp\standard.bjt

